<?xml version="1.0" encoding="UTF-8"?>

<routes xmlns:xsi="http://www.w3.org/2001/XMLSchema-instance" xsi:noNamespaceSchemaLocation="http://sumo.dlr.de/xsd/routes_file.xsd">
    
    <vType id="type1" accel="1.0" decel="3.0" length="5" maxSpeed="55.55"/>
    
    <route id="east_to_north" color="1,1,0" edges="east_leave north_arrive"/>
    <route id="west_to_east" color="1,1,0" edges="west_leave east_arrive"/>
    
    <flow id="car_flow_1" color="1,0,0" begin="50" end="300" number="20" route="east_to_north"/>
    <flow id="car_flow_2" color="1,1,0" begin="300" end="320" number="4" route="east_to_north"/>
    
    <flow id="car_flow_3" color="1,0,1" begin="300" end="450" number="12" route="west_to_east"/>
    <flow id="car_flow_4" color="1,1,1" begin="455" end="500" number="8" route="west_to_east"/>
    
</routes>
